%nprocshared=2
%mem=2GB
%chk=triazole.chk
#p opt b3lyp/6-31g(d) geom=connectivity

triazole

0 1
 C                 -5.71292461    1.85296404    0.10378636
 C                 -4.38257014    1.87172381   -0.25196146
 H                 -6.35308601    0.97313466    0.12049464
 H                 -3.79962646    1.00300013   -0.56313731
 N                 -3.83444920    3.19203495   -0.16649707
 N                 -4.77778206    4.10475452    0.25030998
 N                 -6.25887715    3.37731153    0.52145439
 H                 -7.14621735    3.72617591    0.82298550

 1 2 2.0 3 1.0 7 1.0
 2 4 1.0 5 1.0
 3
 4
 5 6 2.0
 6 7 1.0
 7 8 1.0
 8

--Link1--
%nprocshared=2
%mem=2GB
%chk=triazole.chk
#p M062X/6-311+(2df,2p) Pop=CM5 geom=check guess=read

triazole

0 1


